6
atoms
 C                  0.00000000    0.66545800   -0.00000100
 H                 -0.92356200    1.23964100    0.00000300
 H                  0.92356200    1.23964100    0.00000300
 C                  0.00000000   -0.66545800   -0.00000100
 H                  0.92356200   -1.23964100    0.00000300
 H                 -0.92356200   -1.23964100    0.00000300
